# complexe_001 Multiplicity=2
# Generated on 2025-06-03 11:51:20

! UHF B3LYP def2-SVP RIJCOSX def2/J D3BJ Opt Freq

%maxcore 2000

%pal
  nprocs 4
end

%scf
  MaxIter 300
  UHF true
  ConvTol 1e-7
end

%geom
  MaxIter 100
  Trust 0.3
end

%output
  Print[P_MOs] 1
  Print[P_Overlap] 1
end

* xyz 2 2
  C      3.1558640422     1.4721585467     0.8233206274
  C      1.2873182780     0.9050394536     2.4301013558
  N     -1.8371458069     1.0323974361    -2.2029224094
  C     -2.7995332784     0.2337832435     2.2908111359
  C     -2.2071227319     2.5461733375     2.3619380717
  O      1.9270865994     3.1116787442    -1.6052548970
  O     -3.5063420166     2.9688456343     2.3453754984
  C     -0.9452644652    -2.7827286560    -2.4499015320
  C     -0.7261635919    -3.8104974180    -1.3499147975
  O      0.5696778543    -3.6940521407    -0.7767130465
  O     -1.6424236793    -3.5587702111    -0.3158994735
  N      4.0303221085     0.8112191593     1.7601091369
  C      1.7169790654     1.3928194365     1.2666504409
  C     -1.2589079166     0.7450504415    -1.2437215046
  O     -2.0478626847     1.2904500913     1.6850202016
  O     -1.5557193122    -1.1877738704     0.8263646232
  C     -2.8800430140    -0.9033450666     1.2829390471
  C      1.8940606170     0.0949944312    -3.0446025672
  O      0.7758114908     1.8340722172     0.3563745459
  O      1.1729030300    -1.2001178494     0.0966320403
  H      3.2520261441     0.9754203269    -0.1483784778
  H      3.3989308482     2.5388206540     0.6696100483
  H      1.9732986571     0.4991803439     3.1492624597
  H      1.8490517403    -1.3233728997     0.7697611517
  H     -3.8005396749     0.5943488101     2.5449628690
  H     -2.2900896468    -0.0977481355     3.2048668746
  H     -3.7627507886     3.3521559966     1.4975892148
  H     -0.7561755591    -1.7813303451    -2.0644728501
  H     -0.2746822778    -2.9809219378    -3.2800005457
  H     -1.6112632170    -4.2792871157     0.3283119054
  H      2.9052441052     0.4702458263    -2.9588951085
  H      0.2462941393     0.9586071960     2.7108073182
  H     -1.5746821058    -2.0604474508     0.3328455581
  H     -3.2957427951    -1.7924559490     1.7649900074
  H      1.4244660376     0.0509502984    -2.0673284510
  H      0.9632753496    -2.0984615046    -0.2444595528
  Co    -0.4497386544     0.3336687031     0.3398036412
  H     -1.5089502441     3.2241895003     1.8559409394
  H      1.9009263126     4.0696533516    -1.6871115296
  H     -0.8707400817    -4.8268616116    -1.7388830256
  H      1.2097235249    -4.2176064211    -1.2698500866
  H      4.9539452039     0.6536261534     1.3793506126
  H      4.1161050470     1.3090666789     2.6373084249
  H      1.9343997904    -0.8981929290    -3.4701013994
  H     -1.9687946494    -2.8511593634    -2.8030808701
  H      2.1494377842     2.7562435012    -2.4713235149
  H     -1.9289844254     2.4280855185     3.4182074248
  H     -2.3371005833     1.2820850259    -3.0318756990
  H      1.3201009935     0.7320700155    -3.7048870826
  H      1.2227372798     2.2965800401    -0.4160148686
  H     -3.5132198420    -0.6185502383     0.4352391149
*
