# ligand_003 Multiplicity=1
# Generated on 2025-06-03 11:38:23

! B3LYP def2-SVP RIJCOSX def2/J D3BJ CPCM(water) Opt

%maxcore 2000

%pal
  nprocs 4
end

%scf
  MaxIter 300
  ConvTol 1e-7
end

%geom
  MaxIter 100
  Trust 0.3
end

%output
  Print[P_MOs] 1
  Print[P_Overlap] 1
end

* xyz 0 1
  C     -0.5339855829     0.8310180183     0.5131818558
  C      0.2518868701    -0.2164319213    -0.2989761894
  N      1.6034861763     0.2648685281    -0.5501809748
  C      2.5077232793    -0.0514891399     0.5391670638
  C      3.8055146837     0.7204999640     0.5176998978
  O      4.3317333084     1.2484498953    -0.4243657620
  O      4.3650426093     0.7204965439     1.7357915916
  C      2.1109345623    -0.0881913875    -1.8586854452
  C      2.2706733753    -1.5730018295    -2.1147402736
  O      2.1249320181    -2.4523341290    -1.3043697507
  O      2.6137535794    -1.8182091283    -3.3832674776
  N     -1.9204558620     0.5062977373     0.7975143322
  C     -2.0731010956    -0.5515960383     1.7716634780
  C     -3.4349185006    -0.5730827433     2.4374561797
  O     -4.4646625039    -0.1308412874     2.0115371062
  O     -3.3635298024    -1.2156600884     3.6111235084
  C     -2.7354549142     0.2736251946    -0.3867833080
  C     -2.5377034497     1.3598969516    -1.4215118968
  O     -2.0754720274     1.1825786316    -2.5179393727
  O     -2.9542523738     2.5496677511    -0.9967042919
  H     -0.0401374624     1.0134512796     1.4699842758
  H     -0.5149890175     1.7706749785    -0.0432021390
  H     -0.2427565793    -0.3456395982    -1.2622906986
  H      0.2542394436    -1.1856046127     0.2188398223
  H      2.7817849327    -1.1213518036     0.5615640513
  H      2.0163270028     0.1761111095     1.4863998986
  H      5.2179615324     1.1837610743     1.7154644097
  H      3.0879058176     0.3847441162    -1.9924472002
  H      1.4439990038     0.3226188635    -2.6207937030
  H      2.7255786736    -2.7712055290    -3.5304317645
  H     -1.3322746818    -0.4233538369     2.5631115550
  H     -1.9310402513    -1.5619639915     1.3423175619
  H     -4.2392900288    -1.2574683296     4.0281762976
  H     -3.7812054497     0.2972909285    -0.0693784673
  H     -2.5222626171    -0.6958628390    -0.8666052315
  H     -2.8159836686     3.2272386673    -1.6783209390
*
