# ligand_003 Multiplicity=1
# Generated on 2025-06-04 20:57:56

! B3LYP def2-SVP RIJCOSX def2/J D3BJ Opt Freq

%maxcore 2000

%pal
  nprocs 4
end

%scf
  MaxIter 300
  ConvTol 1e-7
end

%geom
  MaxIter 100
  Trust 0.3
end

%output
  Print[P_MOs] 1
  Print[P_Overlap] 1
end

* xyz 0 1
  C     -0.5339855760     0.8310179781     0.5131818948
  C      0.2518868805    -0.2164319595    -0.2989761496
  N      1.6034861745     0.2648685171    -0.5501809538
  C      2.5077233066    -0.0514891644     0.5391670581
  C      3.8055146948     0.7204999679     0.5176998925
  O      4.3317333486     1.2484498424    -0.4243657841
  O      4.3650425673     0.7204966529     1.7357916086
  C      2.1109345394    -0.0881913536    -1.8586854444
  C      2.2706733558    -1.5730017852    -2.1147403280
  O      2.1249320723    -2.4523341086    -1.3043698225
  O      2.6137534784    -1.8182090416    -3.3832675605
  N     -1.9204558632     0.5062977128     0.7975143493
  C     -2.0731011302    -0.5515960466     1.7716635084
  C     -3.4349185452    -0.5730827051     2.4374561931
  O     -4.4646625387    -0.1308412500     2.0115370874
  O     -3.3635298701    -1.2156600108     3.6111235465
  C     -2.7354548976     0.2736251628    -0.3867833018
  C     -2.5377033831     1.3598968794    -1.4215119215
  O     -2.0754719694     1.1825785069    -2.5179393906
  O     -2.9542522474     2.5496677134    -0.9967043503
  H     -0.0401374653     1.0134512270     1.4699843219
  H     -0.5149889924     1.7706749429    -0.0432020918
  H     -0.2427565785    -0.3456396568    -1.2622906510
  H      0.2542394792    -1.1856046450     0.2188398714
  H      2.7817849892    -1.1213518214     0.5615639974
  H      2.0163270421     0.1761110376     1.4863999104
  H      5.2179614805     1.1837612017     1.7154644310
  H      3.0879057917     0.3847441569    -1.9924471985
  H      1.4439989682     0.3226189181    -2.6207936793
  H      2.7255785849    -2.7712054346    -3.5304318812
  H     -1.3322747232    -0.4233538513     2.5631115935
  H     -1.9310403041    -1.5619640097     1.3423176083
  H     -4.2392900999    -1.2574682220     4.0281763315
  H     -3.7812054386     0.2972909375    -0.0693784851
  H     -2.5222626220    -0.6958628914    -0.8666051920
  H     -2.8159835091     3.2272386020    -1.6783210182
*
