# ligand_005 Multiplicity=1
# Generated on 2025-06-03 11:38:23

! B3LYP def2-SVP RIJCOSX def2/J D3BJ CPCM(water) Opt

%maxcore 2000

%pal
  nprocs 4
end

%scf
  MaxIter 300
  ConvTol 1e-7
end

%geom
  MaxIter 100
  Trust 0.3
end

%output
  Print[P_MOs] 1
  Print[P_Overlap] 1
end

* xyz 0 1
  C     -0.5074264054     0.2462681744     0.7868791580
  C      0.4537601489     0.6842296731    -0.3283155265
  N      1.8286683615     0.4471583242     0.0831974018
  C      2.5596293243    -0.4357637091    -0.7944366217
  C      1.9692951072    -1.8287032205    -0.7847405610
  O      1.3694444835    -2.3450048285     0.1178332366
  O      2.2255190326    -2.4601942072    -1.9349765254
  C      2.5655755976     1.6402042862     0.4540987193
  C      3.6507223073     1.2508185210     1.4425810766
  O      4.6615847867     0.6610194436     1.1689196764
  O      3.3466266590     1.6236330557     2.6846015430
  N     -1.8640354988     0.1692518855     0.2676369566
  C     -2.4686318608    -1.1352439758     0.3973458953
  C     -1.7381047264    -2.1627048757    -0.4389623499
  O     -1.1185499343    -1.9557423265    -1.4460930337
  O     -1.8892182096    -3.3872415508     0.0760812094
  C     -2.7328273357     1.2565130573     0.6763233055
  C     -3.8059919389     1.4428137962    -0.3819199511
  O     -4.7391223552     0.7072985395    -0.5631809976
  O     -3.5875312160     2.5273855081    -1.1236159279
  H     -0.1774294831    -0.7400480986     1.1190980141
  H     -0.4371466299     0.9271607965     1.6425087536
  H      0.2828746341     1.7342125927    -0.5909423188
  H      0.2161895320     0.0793079864    -1.2056680466
  H      2.5971899971    -0.0844637637    -1.8393189251
  H      3.5887010949    -0.5241937281    -0.4302658417
  H      1.8323086342    -3.3466761789    -1.9322487006
  H      1.8883278006     2.3321216561     0.9539202000
  H      3.0344375998     2.1379982157    -0.4131543171
  H      4.0237268333     1.3212414124     3.3122492466
  H     -3.4950430707    -1.0886069856     0.0181956654
  H     -2.5060875685    -1.5007435038     1.4373605465
  H     -1.4072007026    -4.0416164244    -0.4529970203
  H     -3.2199969918     1.0694296748     1.6497006410
  H     -2.1486264707     2.1748320989     0.7276372317
  H     -4.2516095363     2.6040496791    -1.8285808119
*
