# ligand_005 Multiplicity=1
# Generated on 2025-06-04 20:57:56

! B3LYP def2-SVP RIJCOSX def2/J D3BJ Opt Freq

%maxcore 2000

%pal
  nprocs 4
end

%scf
  MaxIter 300
  ConvTol 1e-7
end

%geom
  MaxIter 100
  Trust 0.3
end

%output
  Print[P_MOs] 1
  Print[P_Overlap] 1
end

* xyz 0 1
  C     -0.5073972660     0.2461928533     0.7868703055
  C      0.4537440122     0.6841515621    -0.3283645935
  N      1.8286786316     0.4472106027     0.0831435291
  C      2.5596115063    -0.4359313137    -0.7942879577
  C      1.9695330703    -1.8289677474    -0.7840570127
  O      1.3693209967    -2.3448757622     0.1185011572
  O      2.2264958107    -2.4610966763    -1.9337871541
  C      2.5655931267     1.6403686281     0.4536772552
  C      3.6508489614     1.2512570038     1.4421473577
  O      4.6617324084     0.6614756761     1.1685161731
  O      3.3468342128     1.6242926264     2.6841188720
  N     -1.8640478585     0.1692698057     0.2677161581
  C     -2.4685953553    -1.1352742441     0.3971373571
  C     -1.7383378129    -2.1625050617    -0.4396762137
  O     -1.1184859869    -1.9552010623    -1.4465529205
  O     -1.8901296076    -3.3873120817     0.0745447659
  C     -2.7328466982     1.2563928682     0.6767617101
  C     -3.8061581862     1.4428740898    -0.3813004114
  O     -4.7393210524     0.7073933432    -0.5625456256
  O     -3.5877955395     2.5275579111    -1.1228568141
  H     -0.1774265647    -0.7401440244     1.1190528500
  H     -0.4370337487     0.9270684652     1.6425027945
  H      0.2827824629     1.7341106516    -0.5910247524
  H      0.2162011360     0.0791809978    -1.2056904101
  H      2.5969822812    -0.0849932601    -1.8392996747
  H      3.5887566005    -0.5241053577    -0.4302590459
  H      1.8335932900    -3.3477131548    -1.9306633140
  H      1.8883764724     2.3323894148     0.9533976583
  H      3.0343565773     2.1379624570    -0.4137438026
  H      4.0240099048     1.3220724446     3.3117679192
  H     -3.4951081233    -1.0885334337     0.0182714645
  H     -2.5058004899    -1.5011212179     1.4370396290
  H     -1.4084254293    -4.0415786596    -0.4549514306
  H     -3.2198806966     1.0690662933     1.6501599708
  H     -2.1486871081     2.1747310427     0.7282025618
  H     -4.2519719381     2.6043353202    -1.8277173556
*
