# complexe_004 Multiplicity=2
# Generated on 2025-06-03 11:38:23

! UHF B3LYP def2-SVP RIJCOSX def2/J D3BJ CPCM(water) Opt

%maxcore 2000

%pal
  nprocs 4
end

%scf
  MaxIter 300
  UHF true
  ConvTol 1e-7
end

%geom
  MaxIter 100
  Trust 0.3
end

%output
  Print[P_MOs] 1
  Print[P_Overlap] 1
end

* xyz 2 2
  C      1.1911966783    -0.7018143695     1.3465137346
  C     -1.4203305522    -1.1365913148    -0.2291477215
  N     -1.7666302400     0.1144563240     0.1826058614
  C     -2.1877937065     0.2959615156     1.5702087333
  C     -3.5928669037    -0.3106160589     1.8419121157
  O     -3.5114930098    -1.6651583781     1.5288511071
  O     -4.5373402152     0.3673988915     1.0788642166
  C     -2.4568777231     1.0307214067    -0.7332896587
  C     -1.9244042556     1.0012214073    -2.1741055875
  O     -2.2880339307    -0.1692598845    -2.8242409379
  O     -0.5088357144     1.0952986194    -2.0810140669
  N      2.4755876543    -0.5824467663     0.9517140606
  C      3.2142748650     0.6445802660     1.1412399304
  C      2.3592206539     1.9369356154     1.0305742926
  O      1.3212023226     1.7871607215     0.0561131855
  O      3.2236383691     2.9283541570     0.6468090064
  C      3.0772555023    -1.6014709311     0.1447710851
  C      2.8218890573    -1.3567117485    -1.3855845431
  O      1.4679931070    -1.0415913374    -1.6030511352
  O      3.0617886483    -2.5037392989    -2.1093808135
  H      0.8688774778    -1.7336851828     1.4736129112
  H      0.9206646533    -0.0433336473     2.1702092355
  H     -1.4711143931    -1.9210269446     0.5192581375
  H     -1.7337537608    -1.4265553729    -1.2281670122
  H     -1.4990371789    -0.2262621680     2.2347733204
  H     -2.2193451403     1.3573533604     1.8170941782
  H     -5.4375931035     0.1957677575     1.3828778819
  H     -3.5231735633     0.7796865350    -0.7394474990
  H     -2.3425699126     2.0467108752    -0.3504342312
  H     -0.1159163955     0.9640019086    -2.9545185315
  H      3.9993826182     0.7266628302     0.3859599266
  H      3.6996618916     0.6455959910     2.1233051715
  H      2.9378460191     3.8130550075     0.9086338357
  H      4.1527960924    -1.6431079224     0.3243869220
  H      2.6382160654    -2.5728582111     0.3861435200
  H      3.9961553957    -2.7009157538    -2.2340985932
  Co     0.1101994908     0.0169134128    -0.2023269211
  H     -3.7911472139    -0.1703926178     2.9205203471
  H     -4.3535794780    -2.1144467785     1.6745335069
  H     -2.3109427119     1.8904355096    -2.6950754008
  H     -2.5364096073    -0.0292495198    -3.7452994865
  H      1.8458337751     2.1499007100     1.9790679542
  H      1.6385701574     2.1863177156    -0.7689638546
  H      3.4187642878    -0.4955978551    -1.7307688398
  H      1.0881739270    -1.8276584760    -2.0316403438
*
