# complexe_003 Multiplicity=2
# Generated on 2025-06-04 20:57:56

! UHF B3LYP def2-SVP RIJCOSX def2/J D3BJ Opt Freq

%maxcore 2000

%pal
  nprocs 4
end

%scf
  MaxIter 300
  UHF true
  ConvTol 1e-7
end

%geom
  MaxIter 100
  Trust 0.3
end

%output
  Print[P_MOs] 1
  Print[P_Overlap] 1
end

* xyz 2 2
  C     -0.5824016471     1.4255072638     1.3192601203
  C      0.3971566576     1.9174697673     0.2431741545
  N      1.3397689747     0.8558554963    -0.1454840563
  C      1.9319845892     1.0087070535    -1.4750359836
  C      2.2351598655    -0.3761879205    -2.0385623189
  O      1.6878756047    -1.3747505498    -1.5996928056
  O      3.1042586047    -0.3779029413    -2.9966999202
  C      2.3724434401     0.6104144718     0.8747092556
  C      2.1820494604    -0.7614487322     1.4806619864
  O      1.2248205353    -1.4652984369     1.1592716363
  O      3.0689413779    -1.1104983707     2.3546574317
  N     -1.3458604102     0.2570867079     0.8513805515
  C     -1.8784556561    -0.6008675753     1.9105458158
  C     -1.9481280758    -2.0346731593     1.3934890822
  O     -1.2979872752    -2.3940331530     0.4249783721
  O     -2.7412723530    -2.8015642642     2.0685324748
  C     -2.3884886460     0.6120132469    -0.1254235642
  C     -2.0468606076     0.0298715861    -1.4782707000
  O     -0.9828407122    -0.5614877430    -1.6602018058
  O     -2.9288387272     0.2222560876    -2.4039039090
  H     -0.0284677186     1.1358546114     2.2134224688
  H     -1.2509702728     2.2501239196     1.5939853586
  H      0.9286804334     2.7981010089     0.6232078931
  H     -0.1581598855     2.2226065501    -0.6447955442
  H      1.2184247212     1.4733486418    -2.1612919068
  H      2.8400017794     1.6227729581    -1.4812529634
  H      3.2788542024    -1.2545864720    -3.3907747640
  H      2.3429343951     1.3591298643     1.6747672860
  H      3.3818056021     0.6546632199     0.4510608737
  H      2.9662393364    -2.0108680854     2.7190486698
  H     -2.8637376732    -0.2864142472     2.2736526601
  H     -1.2024946272    -0.6131242161     2.7703444975
  H     -2.7666715459    -3.7307789979     1.7680869144
  H     -3.3710869999     0.2290295189     0.1700512108
  H     -2.5006838359     1.6976434757    -0.2264007228
  H     -2.7239876633    -0.1846712216    -3.2677750779
  Co     0.1212947526    -0.9929593638    -0.2441626714
*
