# complexe_005 Multiplicity=4
# Generated on 2025-06-03 11:38:23

! UHF B3LYP def2-SVP RIJCOSX def2/J D3BJ CPCM(water) Opt

%maxcore 2000

%pal
  nprocs 4
end

%scf
  MaxIter 300
  UHF true
  ConvTol 1e-7
end

%geom
  MaxIter 100
  Trust 0.3
end

%output
  Print[P_MOs] 1
  Print[P_Overlap] 1
end

* xyz 2 4
  C     -0.8083669047     1.5717331047    -0.4286856790
  C      0.4791373240     1.1922491752    -1.1677771541
  N      1.2620490563     0.2506778829    -0.3216119319
  C      1.7315763439    -0.9101447222    -1.0864948209
  C      2.8520955869    -0.6057613682    -2.1439460208
  O      4.0568473134    -0.6016575518    -1.4504759571
  O      2.7993109877    -1.5213821620    -3.1678313455
  C      2.3489174569     0.9339480368     0.4040882109
  C      2.9767726699     0.0025862828     1.4574516326
  O      1.8466314744    -0.6954735042     2.0566333347
  O      3.7115985450     0.6273279295     2.4100051243
  N     -1.3597686009     0.3780625919     0.2492696616
  C     -1.9616055862    -0.5836858211    -0.6777936877
  C     -3.3883388019    -0.2320494691    -1.2279147861
  O     -3.4359009238     1.1025025803    -1.6372885537
  O     -3.5756325515    -1.1214601553    -2.2606478372
  C     -2.2619332934     0.7500842924     1.3494630266
  C     -2.4444090406    -0.4190746788     2.3324073562
  O     -2.8014226587     0.0919344695     3.5454709763
  O     -1.1340253805    -1.0532045924     2.4297159033
  H     -1.5544566022     1.9892066025    -1.1146752793
  H     -0.5924358716     2.3250004851     0.3330932238
  H      0.2521115921     0.7123084176    -2.1198574494
  H      1.0543765488     2.0948945559    -1.3856815941
  H      2.1410345426    -1.6622200392    -0.4076043750
  H      0.8947571122    -1.3499682236    -1.6324855516
  H      3.2144284020    -2.3612936614    -2.9257939192
  H      3.1389239849     1.2681216652    -0.2743333451
  H      1.9258941548     1.8062286850     0.9165458571
  H      3.2768049110     1.3966004811     2.8050626133
  H     -1.3376334988    -0.6848521974    -1.5657723489
  H     -2.0433585074    -1.5638150548    -0.2018967954
  H     -4.5004779032    -1.1856867625    -2.5334584598
  H     -3.2249590266     1.1075119899     0.9768374057
  H     -1.8122755608     1.5564563646     1.9388164928
  H     -0.9616635062    -1.2317718542     3.3677375723
  Co     0.1463241117    -0.3563305226     1.0831205678
  H      2.6509186279     0.3705587861    -2.6179316314
  H      4.8032664210    -0.5187988650    -2.0601116398
  H      3.6508812620    -0.7271944583     0.9898329237
  H      2.1776735736    -1.2674427447     2.7652426070
  H     -4.1375391983    -0.3582555241    -0.4275030711
  H     -3.5453551754     1.1532804646    -2.5973767747
  H     -3.1366597990    -1.1857164707     1.9557483555
  H     -3.3741166116    -0.4840334401     4.0684071632
*
