# complexe_002 Multiplicity=2
# Generated on 2025-06-04 20:57:56

! UHF B3LYP def2-SVP RIJCOSX def2/J D3BJ Opt Freq

%maxcore 2000

%pal
  nprocs 4
end

%scf
  MaxIter 300
  UHF true
  ConvTol 1e-7
end

%geom
  MaxIter 100
  Trust 0.3
end

%output
  Print[P_MOs] 1
  Print[P_Overlap] 1
end

* xyz 2 2
  C     -0.6167540011     1.4269081821     1.2908378208
  C      0.4095197411     1.8940121300     0.2476043249
  N      1.3305051630     0.8058272379    -0.1188352606
  C      1.9655822141     0.9460392356    -1.4298229433
  C      2.2446883211    -0.4452515033    -1.9902842043
  O      1.6557788595    -1.4291828132    -1.5722205250
  O      3.1417048393    -0.4691566437    -2.9218086601
  C      2.3253144631     0.5248868650     0.9294963523
  C      2.0760056480    -0.8432648490     1.5226021707
  O      1.1081090556    -1.5165952800     1.1692487960
  O      2.9252746380    -1.2225165239     2.4207804442
  N     -1.4006763102     0.2846468651     0.7936889532
  C     -1.9917064118    -0.5607626656     1.8316869937
  C     -2.0876083974    -1.9902509465     1.3065832294
  O     -1.4184913349    -2.3652941201     0.3571746876
  O     -2.9234980432    -2.7355869504     1.9534428838
  C     -2.4011198992     0.6756090750    -0.2129102169
  C     -2.0355470638     0.0895299910    -1.5578260682
  O     -0.9857641748    -0.5348399657    -1.7095180412
  O     -2.8809241001     0.3151157720    -2.5097195388
  H     -0.0987737434     1.1165762716     2.1994454327
  H     -1.2682111154     2.2701421357     1.5501163301
  H      0.9561153757     2.7558215369     0.6487696546
  H     -0.1089892166     2.2211876044    -0.6546980650
  H      1.2863885571     1.4337563607    -2.1346525618
  H      2.8910134321     1.5328994176    -1.4069668840
  H      3.3017023867    -1.3495974692    -3.3136060472
  H      2.2948228805     1.2701004528     1.7327142865
  H      3.3470982760     0.5413142778     0.5354333094
  H      2.7853497053    -2.1216121798     2.7758346105
  H     -2.9783196653    -0.2183923912     2.1648633557
  H     -1.3441653795    -0.5959949660     2.7124238733
  H     -2.9656830590    -3.6629238970     1.6487609503
  H     -3.4036067855     0.3211611540     0.0497754615
  H     -2.4774353865     1.7645903848    -0.3113780455
  H     -2.6629468603    -0.0947224108    -3.3691799709
  Co     0.0614173917    -1.0057593746    -0.2630268885
*
