# ligand_002 Multiplicity=1
# Generated on 2025-06-04 20:57:56

! B3LYP def2-SVP RIJCOSX def2/J D3BJ Opt Freq

%maxcore 2000

%pal
  nprocs 4
end

%scf
  MaxIter 300
  ConvTol 1e-7
end

%geom
  MaxIter 100
  Trust 0.3
end

%output
  Print[P_MOs] 1
  Print[P_Overlap] 1
end

* xyz 0 1
  C      0.2081536155    -1.1593459685     0.9701493727
  C     -0.3464755669    -1.4941398409    -0.4184325685
  N     -0.8172259567    -0.3354513715    -1.1704044056
  C     -1.4117671108    -0.7523423057    -2.4265448661
  C     -1.6067030683     0.3681601056    -3.4205027755
  O     -1.6035925317     1.5499522288    -3.2054081344
  O     -1.8251161524    -0.1309684781    -4.6444481283
  C     -1.6364774421     0.5823618897    -0.4032549457
  C     -2.8911603356    -0.0060135744     0.1944224783
  O     -3.3994957619    -1.0595421022    -0.0976529134
  O     -3.4163955361     0.7999195393     1.1281817606
  N      0.9226997751     0.1073671237     1.0452422910
  C      1.9209830180     0.3173212106     0.0160458635
  C      2.2987642788     1.7742196360    -0.1255495204
  O      3.3559086061     2.1662432890    -0.5425502186
  O      1.3139064263     2.6048790974     0.2285703528
  C      1.4002028232     0.3948250267     2.3772320144
  C      2.5238844455    -0.4898507589     2.8958821204
  O      2.9895159799    -1.4518488982     2.3467829509
  O      2.9594586115    -0.0595982201     4.0864576509
  H     -0.6230795055    -1.0834236962     1.6794364108
  H      0.8369016272    -2.0067551132     1.2794379151
  H      0.4378998466    -1.9648342286    -1.0198696020
  H     -1.1449494263    -2.2394109696    -0.2777005119
  H     -2.3957040863    -1.2337494833    -2.2920421803
  H     -0.7580265734    -1.4890467822    -2.9008320582
  H     -1.9775939763     0.5868319676    -5.2798762664
  H     -1.0193888354     1.0101775835     0.3897862957
  H     -1.9289813592     1.4057839082    -1.0601120959
  H     -4.2377309669     0.4211248630     1.4803156184
  H      2.8379547840    -0.2742445541     0.1492907363
  H      1.4654258979     0.0523492443    -0.9414374465
  H      1.5686836971     3.5239084953     0.0492892357
  H      1.7521058793     1.4291029874     2.4187673978
  H      0.5664687592     0.3109602627     3.0817202437
  H      3.6809481203    -0.6233051134     4.4096089287
*
