# ligand_002 Multiplicity=1
# Generated on 2025-06-03 11:51:20

! B3LYP def2-SVP RIJCOSX def2/J D3BJ Opt Freq

%maxcore 2000

%pal
  nprocs 4
end

%scf
  MaxIter 300
  ConvTol 1e-7
end

%geom
  MaxIter 100
  Trust 0.3
end

%output
  Print[P_MOs] 1
  Print[P_Overlap] 1
end

* xyz 0 1
  C      0.2084443236    -1.1587805100     0.9711198141
  C     -0.3458132422    -1.4935698600    -0.4176229122
  N     -0.8167058813    -0.3352892343    -1.1700385564
  C     -1.4106242788    -0.7531960866    -2.4261911810
  C     -1.6078297069     0.3668388956    -3.4201445727
  O     -1.6041170721     1.5490358465    -3.2057096988
  O     -1.8295091958    -0.1333083386    -4.6435455160
  C     -1.6364046908     0.5827340398    -0.4037802987
  C     -2.8926601821    -0.0045271511     0.1917863697
  O     -3.4010466107    -1.0576680467    -0.1002620909
  O     -3.4202116663     0.8031217463     1.1223716702
  N      0.9233130146     0.1078207083     1.0468073743
  C      1.9211428347     0.3184524424     0.0172723465
  C      2.2981204745     1.7756475007    -0.1240405908
  O      3.3555533437     2.1683875927    -0.5396778534
  O      1.3123202279     2.6055701966     0.2288913071
  C      1.4019267973     0.3937862900     2.3786792691
  C      2.5256336118    -0.4922132588     2.8955132525
  O      2.9886246176    -1.4553315974     2.3461940416
  O      2.9645137556    -0.0616184093     4.0847204664
  H     -0.6229528559    -1.0828319242     1.6802078185
  H      0.8369926782    -2.0063071078     1.2803729557
  H      0.4387262326    -1.9642341960    -1.0188413593
  H     -1.1441750033    -2.2389068097    -0.2768495079
  H     -2.3935459044    -1.2366725854    -2.2917426399
  H     -0.7553142480    -1.4884209282    -2.9006039061
  H     -1.9835914403     0.5842074224    -5.2789540715
  H     -1.0202609789     1.0100035340     0.3902842013
  H     -1.9273816084     1.4065340438    -1.0609162348
  H     -4.2427197956     0.4253519453     1.4726960573
  H      2.8384207315    -0.2726332026     0.1501365378
  H      1.4653531120     0.0536122213    -0.9400669134
  H      1.5667830356     3.5247505029     0.0498156929
  H      1.7545374740     1.4277590799     2.4209673735
  H      0.5687801706     0.3094681326     3.0837243416
  H      3.6856799258    -0.6259558945     4.4074280136
*
