# ligand_002 Multiplicity=1
# Generated on 2025-06-03 11:38:23

! B3LYP def2-SVP RIJCOSX def2/J D3BJ CPCM(water) Opt

%maxcore 2000

%pal
  nprocs 4
end

%scf
  MaxIter 300
  ConvTol 1e-7
end

%geom
  MaxIter 100
  Trust 0.3
end

%output
  Print[P_MOs] 1
  Print[P_Overlap] 1
end

* xyz 0 1
  C      0.2081536119    -1.1593459725     0.9701493601
  C     -0.3464755779    -1.4941398443    -0.4184325783
  N     -0.8172259696    -0.3354513702    -1.1704044062
  C     -1.4117671238    -0.7523422892    -2.4265448713
  C     -1.6067030498     0.3681601339    -3.4205027756
  O     -1.6035925600     1.5499522557    -3.2054081089
  O     -1.8251160551    -0.1309684341    -4.6444481484
  C     -1.6364774538     0.5823618831    -0.4032549349
  C     -2.8911603204    -0.0060136051     0.1944225217
  O     -3.3994957707    -1.0595421127    -0.0976529068
  O     -3.4163954698     0.7999194613     1.1281818718
  N      0.9226997694     0.1073671209     1.0452422705
  C      1.9209830253     0.3173211908     0.0160458528
  C      2.2987642869     1.7742196117    -0.1255495687
  O      3.3559086034     2.1662432466    -0.5425503095
  O      1.3139064553     2.6048790896     0.2285703266
  C      1.4002027964     0.3948250427     2.3772319987
  C      2.5238844125    -0.4898507323     2.8958821362
  O      2.9895159824    -1.4518488606     2.3467829740
  O      2.9594585432    -0.0595981827     4.0864576769
  H     -0.6230795056    -1.0834237006     1.6794364029
  H      0.8369016272    -2.0067551163     1.2794378998
  H      0.4378998321    -1.9648342326    -1.0198696173
  H     -1.1449494396    -2.2394109712    -0.2777005195
  H     -2.3957041121    -1.2337494431    -2.2920421932
  H     -0.7580266001    -1.4890467776    -2.9008320625
  H     -1.9775938625     0.5868320170    -5.2798762841
  H     -1.0193888384     1.0101775964     0.3897862883
  H     -1.9289814045     1.4057838882    -1.0601120872
  H     -4.2377308863     0.4211247740     1.4803157513
  H      2.8379547918    -0.2742445692     0.1492907522
  H      1.4654259207     0.0523491988    -0.9414374588
  H      1.5686837276     3.5239084795     0.0492891822
  H      1.7521058397     1.4291030088     2.4187673749
  H      0.5664687219     0.3109602801     3.0817202158
  H      3.6809480523    -0.6233050647     4.4096089744
*
