# complexe_002 Multiplicity=4
# Generated on 2025-06-03 11:38:23

! UHF B3LYP def2-SVP RIJCOSX def2/J D3BJ CPCM(water) Opt

%maxcore 2000

%pal
  nprocs 4
end

%scf
  MaxIter 300
  UHF true
  ConvTol 1e-7
end

%geom
  MaxIter 100
  Trust 0.3
end

%output
  Print[P_MOs] 1
  Print[P_Overlap] 1
end

* xyz 2 4
  C      1.1949574788    -2.9726619079     2.5119461310
  C      1.0800413442    -3.2884076645    -1.7469234589
  N      0.9850580802    -2.0356516324    -0.9862984236
  C      2.2288672799    -0.9765189552     1.8217342244
  C      2.7383784644     0.0357704771     0.8315714516
  O      1.0275143893     3.2637587457     0.2802835163
  O      3.6566538470     2.2113902305     1.0781427399
  C     -3.9743621749     1.0704916325     0.5887163242
  C     -2.8615347399     1.4224782032    -0.4418194506
  O     -1.3986782554    -0.5462549976    -0.4955385059
  O      0.0607923654     0.8957303943     1.5853352464
  N      1.5994506721    -2.0230071112     1.5225963073
  C     -3.8035233334    -0.4176031099     0.2078763456
  C     -2.4932644366    -0.0301110858    -0.3852044082
  O     -1.7772378643     2.2566634907    -0.1023532259
  O     -4.8396332119     1.0689700673    -2.7508421246
  C      1.9868019430    -1.0362528996    -1.3791602681
  C      1.9923362345     0.2462879373    -0.5221290581
  O      2.7813852198     1.2301869950     1.6081516401
  O      2.6825559070     1.1842730498    -1.2888720775
  H      1.1653240304    -2.1836528283     0.0971339464
  H      0.1166010418    -3.1078253375     2.4339258054
  H      0.3144877372    -3.9819184265    -1.4087175032
  H      0.9448539467    -3.1080808120    -2.8120334796
  H      2.4913955494    -0.7287196026     2.8529477061
  H      0.7857268914     1.3373045537     2.0500397638
  H      4.3966725839     2.2705819954     1.7057525980
  H     -4.5220642608    -0.7279368958    -0.5486581934
  H     -3.6741793391     1.2761007436     1.6127640205
  H     -0.7452189136     1.3547649159     1.8541042597
  H     -3.7762955517    -1.1657304685     0.9966485950
  H     -4.9457328682     1.5105141249     0.3912279416
  H     -5.7489012287     1.3647083399    -2.6470861685
  H      1.8476320854    -0.7313074392    -2.4193576541
  H      2.9742526485    -1.5052133493    -1.3093460666
  H      3.2025791112     1.7856177623    -0.7325635231
  Co     0.2342533219     1.1749355326    -0.4349270575
  H      1.4580445218    -2.6778686347     3.5288488634
  H      1.6638526499    -3.9289055613     2.2787121894
  H      2.0561385656    -3.7430491502    -1.5932186149
  H      3.7749875221    -0.2571860074     0.5796381104
  H      0.9518546132     4.0542503279    -0.2596947978
  H     -3.3124732649     1.6815902130    -1.4064836242
  H     -4.7498304621     0.8317956041    -3.6781549709
  H      0.0062168829     0.9618993839    -1.9413159370
  H     -2.0098840487     3.1813718454    -0.2419862847
  H      0.2861450891     1.8549884958    -1.8121460958
  H      1.9055990648     3.2892274162     0.6778838735
  H      0.0414028713    -1.6417876005    -1.0682286273
*
