# ligand_001 Multiplicity=1
# Generated on 2025-06-03 11:38:23

! B3LYP def2-SVP RIJCOSX def2/J D3BJ CPCM(water) Opt

%maxcore 2000

%pal
  nprocs 4
end

%scf
  MaxIter 300
  ConvTol 1e-7
end

%geom
  MaxIter 100
  Trust 0.3
end

%output
  Print[P_MOs] 1
  Print[P_Overlap] 1
end

* xyz 0 1
  C     -0.5570403140     0.2963648792     1.7424560529
  C      0.8528532518     0.7157593221     1.2793927406
  N      1.3955923414    -0.1664023870     0.2572437926
  C      1.8189935849    -1.4451181018     0.7836823251
  C      1.8379218926    -2.5170222851    -0.2800064376
  O      1.4624786886    -2.4029776820    -1.4144516290
  O      2.3406083601    -3.6600565669     0.2018335769
  C      2.4264391465     0.4446871717    -0.5510642492
  C      1.9076528807     1.5237107414    -1.4735222379
  O      0.7713196141     1.8918730250    -1.5930121386
  O      2.9102642272     2.0562915415    -2.1816207020
  N     -1.6239095105     0.4070048342     0.7700299691
  C     -1.8683442037     1.7733575035     0.3454248828
  C     -3.2778524215     2.0049856224    -0.1496315022
  O     -4.0202705895     1.2074372978    -0.6532262735
  O     -3.6228926851     3.2940717474     0.0072496104
  C     -1.5285654774    -0.4854873479    -0.3740358763
  C     -1.5297354625    -1.9569021440    -0.0629291617
  O     -1.1295756451    -2.5147062684     0.9287314601
  O     -2.0112464179    -2.6454292790    -1.1025134332
  H     -0.8267642471     0.9275707903     2.5945256907
  H     -0.5542182731    -0.7364501388     2.0866532008
  H      1.5140100470     0.7578606295     2.1632910693
  H      0.7964476640     1.7188405772     0.8561050715
  H      1.0969361422    -1.7863436248     1.5281994469
  H      2.8110150006    -1.4135181040     1.2684043720
  H      2.3104249214    -4.3559841321    -0.4737571231
  H      2.8578542494    -0.3195922225    -1.2032098873
  H      3.2513787243     0.8803862975     0.0437292948
  H      2.5731824270     2.7292567112    -2.7947725881
  H     -1.2001926859     2.0879477240    -0.4750009692
  H     -1.7094218082     2.4500427569     1.1871893415
  H     -4.5126246614     3.4463726736    -0.3498397539
  H     -2.3907841813    -0.2993543065    -1.0164550544
  H     -0.6117267619    -0.3091347737    -0.9617193193
  H     -1.9602068175    -3.5993444819    -0.9333725616
*
