# ligand_001 Multiplicity=1
# Generated on 2025-06-04 20:57:56

! B3LYP def2-SVP RIJCOSX def2/J D3BJ Opt Freq

%maxcore 2000

%pal
  nprocs 4
end

%scf
  MaxIter 300
  ConvTol 1e-7
end

%geom
  MaxIter 100
  Trust 0.3
end

%output
  Print[P_MOs] 1
  Print[P_Overlap] 1
end

* xyz 0 1
  C     -0.5562161130     0.2950288605     1.7417113020
  C      0.8531705668     0.7168870777     1.2796131548
  N      1.3982692285    -0.1642937755     0.2578022964
  C      1.8215133662    -1.4434799075     0.7832480955
  C      1.8345908376    -2.5150958577    -0.2808090931
  O      1.4567421980    -2.3995427997    -1.4142129921
  O      2.3355203759    -3.6596018095     0.1999730003
  C      2.4310920255     0.4486458260    -0.5469055489
  C      1.9113144019     1.5224580670    -1.4753576330
  O      0.7744564671     1.8884998260    -1.5964325711
  O      2.9137244126     2.0521170033    -2.1859247920
  N     -1.6234546177     0.4067273649     0.7696605982
  C     -1.8694601199     1.7734802483     0.3469790742
  C     -3.2790954737     2.0025023317    -0.1489355721
  O     -4.0187763566     1.2037092815    -0.6545490561
  O     -3.6278535117     3.2903894814     0.0096594585
  C     -1.5279498548    -0.4851444096    -0.3749241002
  C     -1.5308589469    -1.9565775812    -0.0641526035
  O     -1.1298987843    -2.5152509980     0.9266951293
  O     -2.0153522868    -2.6438926093    -1.1031561444
  H     -0.8263724286     0.9233554295     2.5957516200
  H     -0.5523800538    -0.7388628492     2.0826043043
  H      1.5137101102     0.7599142993     2.1639004680
  H      0.7955298112     1.7198271003     0.8561697231
  H      1.1026731093    -1.7838691046     1.5311359772
  H      2.8156295697    -1.4133922454     1.2635602441
  H      2.3017915426    -4.3561068566    -0.4747840920
  H      2.8701504782    -0.3156105805    -1.1938704261
  H      3.2500961753     0.8905130293     0.0513841060
  H      2.5769585426     2.7218467333    -2.8027368812
  H     -1.2010711294     2.0909324240    -0.4720778560
  H     -1.7126968934     2.4480503422     1.1907401466
  H     -4.5176080859     3.4411672580    -0.3478436148
  H     -2.3898099423    -0.2983165607    -1.0174504978
  H     -0.6108603134    -0.3090215478    -0.9622270337
  H     -1.9672173071    -3.5979944913    -0.9342371906
*
